<routes>
	<vType id="car" accel="5" decel="7" sigma="0" length="5" maxSpeed="14"/>
	<route id="rA" edges="E-1_A E0_A E1_A E2"/>
	<route id="rB" edges="E-1_B E0_B E1_B E2"/>
	<route id="rB_c" edges="E-1_B E0_B E1_A E2"/>
	<vehicle id="A0" color="0,1,1" depart="0" route="rA" type = "car" departPos="47">
		<stop lane="E-1_A_0" endPos="-1" until="11"/>
	</vehicle>
	<vehicle id="A1" color="0,1,1" depart="0" route="rA" type = "car" departPos="47">
		<stop lane="E-1_A_0" endPos="-1" until="17"/>
	</vehicle>
	<vehicle id="A2" color="0,1,1" depart="0" route="rA" type = "car" departPos="47">
		<stop lane="E-1_A_0" endPos="-1" until="20"/>
	</vehicle>
	<vehicle id="A3" color="0,1,1" depart="0" route="rA" type = "car" departPos="47">
		<stop lane="E-1_A_0" endPos="-1" until="27"/>
	</vehicle>
	<vehicle id="B0" color="1,0,0" depart="0" route="rB" type = "car" departPos="47">
		<stop lane="E-1_B_0" endPos="-1" until="7"/>
	</vehicle>
	<vehicle id="B1" color="1,0,0" depart="0" route="rB" type = "car" departPos="47">
		<stop lane="E-1_B_0" endPos="-1" until="11"/>
	</vehicle>
	<vehicle id="B2" color="1,0,0" depart="0" route="rB" type = "car" departPos="47">
		<stop lane="E-1_B_0" endPos="-1" until="13"/>
	</vehicle>
	<vehicle id="B3" color="1,0,0" depart="0" route="rB" type = "car" departPos="47">
		<stop lane="E-1_B_0" endPos="-1" until="20"/>
	</vehicle>
</routes>
