<connections>
	<!-->use one edge with two lanes<-->
	<!-->
	<connection from='E0'		to='E1'			fromLane='0'		toLane='0'/>
	<connection from='E0'		to='E1'			fromLane='1'		toLane='0'/>
	<-->
		
	<!-->use two edges<-->
	<connection from='E-1_A'		to='E0_A'/>
	<connection from='E-1_B'		to='E0_B'/>
	<connection from='E0_A'		to='E1_A'/>
	<connection from='E0_B'		to='E1_B'/>
	<connection from='E0_B'		to='E1_A'/>
	<connection from='E1_A'		to='E2'/>
	<connection from='E1_B'		to='E2'/>
	
</connections>